java/SFINA/experiments/experiment-Case30LinkRemovalRandom/output/time_12/iteration_1/flow/links.txt
id,current,real_power_from,reactive_power_from,real_power_to,reactive_power_to,resistance,reactance,susceptance,rateA,rateB,rateC,ratio,angle,angmin,angmax
1,136.35066878727682,29.876497607009433,-11.130382741996847,-29.67942773080562,8.721592370608047,0.02,0.06,0.03,130.0,130.0,130.0,0.0,0.0,-360.0,360.0
2,0.09978809449621401,1.4356986354122297E-6,0.02333313665965053,5.221696556624469E-4,-2.017458811191634,0.05,0.19,0.02,130.0,130.0,130.0,0.0,0.0,-360.0,360.0
3,61.34903331376244,-13.396755087227463,5.1290801551929555,13.526978289477027,-6.756057024741759,0.06,0.17,0.02,65.0,65.0,65.0,0.0,0.0,-360.0,360.0
4,10.866280219512355,-2.400518869183464,0.8174586045304616,2.4011644499639244,-0.8148762814086195,0.01,0.04,0.0,130.0,130.0,130.0,0.0,0.0,-360.0,360.0
5,9.378513618024925,7.168445432359505E-4,-2.192948264432637,-5.281505478861279E-6,0.19101739208470375,0.05,0.2,0.02,130.0,130.0,130.0,0.0,0.0,-360.0,360.0
6,238.9008121140914,52.86450114777169,18.051135438536164,-50.96994040191158,-14.24679907647493,0.06,0.18,0.02,65.0,65.0,65.0,0.0,0.0,-360.0,360.0
7,190.79114193261583,41.50488881038228,13.323150520300567,-41.30586492220735,-12.527054967600826,0.01,0.04,0.0,90.0,90.0,90.0,0.0,0.0,-360.0,360.0
8,407.36286540684625,85.32340254589066,14.026752908233858,-80.77977827906095,-3.8938187502114308,0.05,0.12,0.01,70.0,70.0,70.0,0.0,0.0,-360.0,360.0
9,4591.536532259224,870.0067761717669,339.1649343283621,-524.1040577139382,582.5976465172946,0.03,0.08,0.01,130.0,130.0,130.0,0.0,0.0,-360.0,360.0
10,7266.072245332501,1145.1866363916756,933.8861610110151,-856.5255677734414,220.7581134619222,0.01,0.04,0.0,32.0,32.0,32.0,0.0,0.0,-360.0,360.0
11,1885.7378664755772,-37.7896479416497,381.63568410843635,37.78964794164969,26.656184181004228,0.0,0.21,0.0,65.0,65.0,65.0,0.0,0.0,-360.0,360.0
12,1227.227838352829,16.883616267517933,249.00932725308152,-16.883616267517933,212.12474778883566,0.0,0.56,0.0,32.0,32.0,32.0,0.0,0.0,-360.0,360.0
13,213.58775567044157,-1.1449174941446927E-14,5.2379432772082035,1.181896805331713E-14,1.080479329907161E-14,0.0,0.21,0.0,65.0,65.0,65.0,0.0,0.0,-360.0,360.0
14,43.263170621574034,9.096103975155703,-3.951694274597732,-9.096103975155705,4.06426310805696,0.0,0.11,0.0,65.0,65.0,65.0,0.0,0.0,-360.0,360.0
15,104.02298114783525,-23.528143686266343,5.970944295025898,23.528143686266343,-4.432716227854462,0.0,0.26,0.0,65.0,65.0,65.0,0.0,0.0,-360.0,360.0
16,166.5787520827636,-36.99999996900404,-10.047606311504055,36.99999996900404,12.171613762510088,0.0,0.14,0.0,65.0,65.0,65.0,0.0,0.0,-360.0,360.0
17,28.164633200997958,6.252044891295469,1.7127639684349494,-6.199999984274288,-1.600000003222391,0.12,0.26,0.0,32.0,32.0,32.0,0.0,0.0,-360.0,360.0
18,35.82055439208297,-7.4947822574960465,3.4351295542959965,7.543890165992252,-3.343929152803045,0.07,0.13,0.0,32.0,32.0,32.0,0.0,0.0,-360.0,360.0
19,17.220985104367944,3.514593082706373,1.8324290912497616,-3.4999999919530413,-1.800000000686804,0.09,0.2,0.0,32.0,32.0,32.0,0.0,0.0,-360.0,360.0
20,17.693654183221856,-3.9985245324832066,0.5741130785837397,4.036181603924391,-0.5398793772735723,0.22,0.2,0.0,16.0,16.0,16.0,0.0,0.0,-360.0,360.0
21,26.480687101840218,5.684094077085482,-2.0777288447174564,-5.653422417317758,2.1505740366658026,0.08,0.19,0.0,16.0,16.0,16.0,0.0,0.0,-360.0,360.0
22,71.67747791133777,16.226422208414125,-2.361675007609776,-15.917430441360644,2.979658541716737,0.11,0.22,0.0,16.0,16.0,16.0,0.0,0.0,-360.0,360.0
23,121.83824092153277,0.3077672694796311,1.1253697054181526,0.1792084212931165,-0.07025570874386564,0.06,0.13,0.0,16.0,16.0,16.0,0.0,0.0,-360.0,360.0
24,1101.2586005549522,-1.7355101811717801,0.12263545986878188,21.627978394293553,46.29312370408202,0.03,0.07,0.0,32.0,32.0,32.0,0.0,0.0,-360.0,360.0
25,1019.3893436370163,63.42717337904177,164.98533426049693,-12.292971730388572,-45.67219708030616,0.09,0.21,0.0,32.0,32.0,32.0,0.0,0.0,-360.0,360.0
26,2847.6108977029344,134.29733251907004,364.9511872820323,-1.2912999741574347,-10.268433828932002,0.03,0.08,0.0,32.0,32.0,32.0,0.0,0.0,-360.0,360.0
27,1253.8590061104678,13.041215162025493,-217.02183379580796,12.746178722143542,277.19241952553574,0.03,0.07,0.0,32.0,32.0,32.0,0.0,0.0,-360.0,360.0
28,44.15931415197394,-2.9712226199794114,-9.706250258279304,3.0458557182512624,9.866178326004698,0.07,0.15,0.0,32.0,32.0,32.0,0.0,0.0,-360.0,360.0
29,1067.552945135605,-39.86572042405827,-232.86708217220504,46.096862270783916,245.32936586565634,0.01,0.02,0.0,32.0,32.0,32.0,0.0,0.0,-360.0,360.0
30,68.44140242474927,-15.74389002703163,0.8439291229313441,16.00000005984538,-0.3317090573038448,0.1,0.2,0.0,16.0,16.0,16.0,0.0,0.0,-360.0,360.0
31,39.73284061660109,-3.436220985216324,8.631786175448594,3.5397994019018126,-8.476418550420364,0.12,0.18,0.0,16.0,16.0,16.0,0.0,0.0,-360.0,360.0
32,34.949397218449626,5.415375217999388,6.1202170513523,-5.328556868839788,-5.9399020184823605,0.13,0.27,0.0,16.0,16.0,16.0,0.0,0.0,-360.0,360.0
33,10.134171269535956,-1.8673572463035595,-1.3992918550572155,1.87802612732716,1.4178220168350468,0.19,0.33,0.0,16.0,16.0,16.0,0.0,0.0,-360.0,360.0
34,3.886238688935067,0.7533000447664789,0.49680700093740815,-0.7512356738002719,-0.49366915706877357,0.25,0.38,0.0,16.0,16.0,16.0,0.0,0.0,-360.0,360.0
35,14.014723460291398,-2.631326172093683,-1.9146290177724767,2.643138909291287,1.9371806069679032,0.11,0.21,0.0,16.0,16.0,16.0,0.0,0.0,-360.0,360.0
36,3906.265481182254,-134.56593722750554,4240.54650637723,134.56593722750566,-903.4228873048238,0.0,0.4,0.0,65.0,65.0,65.0,0.0,0.0,-360.0,360.0
37,5.7368978417996495,1.303067798003621,0.3185557116567539,-1.29910897846285,-0.3109979652607367,0.22,0.42,0.0,16.0,16.0,16.0,0.0,0.0,-360.0,360.0
38,6.548826512911274,1.5002196163957482,0.30691181803028655,-1.4927160843590594,-0.29284269546149494,0.32,0.6,0.0,16.0,16.0,16.0,0.0,0.0,-360.0,360.0
39,3.404735447863875,0.7839759449998188,0.11782307771210362,-0.7824548134360931,-0.11497095603011807,0.24,0.45,0.0,16.0,16.0,16.0,0.0,0.0,-360.0,360.0
40,8703.676262507308,-911.8937534129914,-539.4742300784237,3396.3558766869132,8799.167729225475,0.06,0.2,0.02,32.0,32.0,32.0,0.0,0.0,-360.0,360.0
41,12.363970708097785,-0.6501228351114741,-2.7368379875190976,0.6512944138720519,1.7921179504050309,0.02,0.06,0.01,32.0,32.0,32.0,0.0,0.0,-360.0,360.0
